/*---------------------------------------------------------------------------*\
| =========                 |                                                 |
| \\      /  F ield         | OpenFOAM: The Open Source CFD Toolbox           |
|  \\    /   O peration     | Version:  v1906                                 |
|   \\  /    A nd           | Web:      www.OpenFOAM.com                      |
|    \\/     M anipulation  |                                                 |
\*---------------------------------------------------------------------------*/
Build  : v1906 OPENFOAM=1906
Arch   : "LSB;label=32;scalar=64"
Exec   : topoSet
Date   : Jul 23 2019
Time   : 13:55:34
Host   : DESKTOP-9S60IA4
PID    : 2817
I/O    : uncollated
Case   : /home/theodore_ong/GitHub_software/thin_pipeflow_snappyHexMesh/snappy_pipe
nProcs : 1
trapFpe: Floating point exception trapping enabled (FOAM_SIGFPE).
fileModificationChecking : Monitoring run-time modified files using timeStampMaster (fileModificationSkew 10)
allowSystemOperations : Allowing user-supplied system call operations

// * * * * * * * * * * * * * * * * * * * * * * * * * * * * * * * * * * * * * //
Create time

Create polyMesh for time = 0

Reading topoSetDict

Time = 0
    mesh not changed.
Created faceSet cylinder
    Applying source patchToFace
    Adding all faces of patches 1(cylinder) ...
    Found matching patch cylinder with 68552 faces.
    faceSet cylinder now size 68552
Created faceSet bottom_patch_negative
    Applying source boxToFace
    Adding faces with centre within boxes 1((-0.6 -0.6 0.01) (0.6 0.6 41))
    faceSet bottom_patch_negative now size 784712
Created faceSet top_patch_negative
    Applying source boxToFace
    Adding faces with centre within boxes 1((-0.6 -0.6 -1) (0.6 0.6 39.99))
    faceSet top_patch_negative now size 784784
Created faceSet bottomPatch
    Applying source faceToFace
    Adding all elements of faceSet 1(cylinder)
    faceSet bottomPatch now size 68552
Read set faceSet bottomPatch with size 68552
    Applying source faceToFace
    Removing all elements of faceSet 1(bottom_patch_negative)
    faceSet bottomPatch now size 9040
Created faceSet topPatch
    Applying source faceToFace
    Adding all elements of faceSet 1(cylinder)
    faceSet topPatch now size 68552
Read set faceSet topPatch with size 68552
    Applying source faceToFace
    Removing all elements of faceSet 1(top_patch_negative)
    faceSet topPatch now size 9040
Created faceSet wall
    Applying source faceToFace
    Adding all elements of faceSet 1(cylinder)
    faceSet wall now size 68552
Read set faceSet wall with size 68552
    Applying source faceToFace
    Removing all elements of faceSet 1(bottomPatch)
    faceSet wall now size 59512
Read set faceSet wall with size 59512
    Applying source faceToFace
    Removing all elements of faceSet 1(topPatch)
    faceSet wall now size 50472

End

